/*--------------------------------*- C++ -*----------------------------------*\
| =========                 |                                                 |
| \\      /  F ield         | OpenFOAM: The Open Source CFD Toolbox           |
|  \\    /   O peration     | Version:  2.2.2                                 |
|   \\  /    A nd           | Web:      www.OpenFOAM.org                      |
|    \\/     M anipulation  |                                                 |
\*---------------------------------------------------------------------------*/
FoamFile
{
    version     2.0;
    format      ascii;
    class       volVectorField;
    object      U;
}
// * * * * * * * * * * * * * * * * * * * * * * * * * * * * * * * * * * * * * //


dimensions      [0 1 -1 0 0 0 0];

internalField   uniform (0.261 0 0);

boundaryField
{
    inlet
    {
        type            cyclic;
    }
    outlet
    {
        type            cyclic;
	}
    sideWall1
    {
        type            symmetryPlane;
    }
    sideWall2
    {
        type            symmetryPlane;
    }

    top
    {
        type            symmetryPlane;
    }

    bottom
    {
        type            fixedValue;
        value           uniform (0 0 0);
    }
    IB_bed
    {
        type immersedBoundaryVelocityWallFunction;
        patchType immersedBoundary;

        refValue uniform (0 0 0);
        refGradient  uniform (0 0 0);
        fixesValue yes;

        setDeadCellValue   yes;
        deadCellValue      (0 0 0);

        value uniform (0 0 0);
    }
}


// ************************************************************************* //
