/*--------------------------------*- C++ -*----------------------------------*\
| =========                 |                                                 |
| \\      /  F ield         | OpenFOAM: The Open Source CFD Toolbox           |
|  \\    /   O peration     | Version:  2.3.0                                 |
|   \\  /    A nd           | Web:      www.OpenFOAM.org                      |
|    \\/     M anipulation  |                                                 |
\*---------------------------------------------------------------------------*/
FoamFile
{
    version     2.0;
    format      ascii;
    class       vectorAverageField;
    object      values;
}
// * * * * * * * * * * * * * * * * * * * * * * * * * * * * * * * * * * * * * //



(0.123730378578 0 0)

5252
(
(0.08192589 0.00024978398 -0.00070958149)
(0.08192589 0.00024978398 -0.00070958149)
(0.077638876 0.0037369748 0.00029556246)
(0.077638876 0.0037369748 0.00029556246)
(0.076417239 0.0021583209 0.00040784995)
(0.076417239 0.0021583209 0.00040784995)
(0.077498924 0.0028640397 0.00023297655)
(0.077498924 0.0028640397 0.00023297655)
(0.084030959 0.0014496464 0.00042334316)
(0.084030959 0.0014496464 0.00042334316)
(0.082088409 0.0021797572 -1.3806275e-05)
(0.082088409 0.0021797572 -1.3806275e-05)
(0.084543253 0.0023673793 0.00013195633)
(0.084543253 0.0023673793 0.00013195633)
(0.086882427 0.0029531997 0.00035431647)
(0.086882427 0.0029531997 0.00035431647)
(0.088877915 0.0028214819 -0.00021598388)
(0.088877915 0.0028214819 -0.00021598388)
(0.047054683 0.0030977084 0.00013917053)
(0.047054683 0.0030977084 0.00013917053)
(0.091211433 4.5137146e-05 -0.0015926306)
(0.091211433 4.5137146e-05 -0.0015926306)
(0.094303241 0.0022494602 -0.00026808974)
(0.094303241 0.0022494602 -0.00026808974)
(0.0944067 0.0020500728 -0.00017819768)
(0.0944067 0.0020500728 -0.00017819768)
(0.094548834 0.0026006277 0.00012564395)
(0.094548834 0.0026006277 0.00012564395)
(0.099736499 0.0015502449 0.00055045974)
(0.099736499 0.0015502449 0.00055045974)
(0.10021964 0.0016926379 -0.00057647299)
(0.10021964 0.0016926379 -0.00057647299)
(0.10496401 0.00056089341 0.0003068154)
(0.10496401 0.00056089341 0.0003068154)
(0.10730086 0.0018777735 -0.0001896115)
(0.10730086 0.0018777735 -0.0001896115)
(0.10722268 0.0033174374 -0.00021161068)
(0.10722268 0.0033174374 -0.00021161068)
(0.11547592 0.0023360339 -0.00062107331)
(0.11547592 0.0023360339 -0.00062107331)
(0.095366994 -0.00022344432 -0.0012552694)
(0.095366994 -0.00022344432 -0.0012552694)
(0.10211001 0.00059587143 -0.00029925681)
(0.10211001 0.00059587143 -0.00029925681)
(0.10321439 0.0010491467 1.2833387e-05)
(0.10321439 0.0010491467 1.2833387e-05)
(0.10448635 0.0014833967 0.00059503342)
(0.10448635 0.0014833967 0.00059503342)
(0.10755935 0.001386124 0.00096718196)
(0.10755935 0.001386124 0.00096718196)
(0.11004631 0.00098514275 0.00012047221)
(0.11004631 0.00098514275 0.00012047221)
(0.11510387 0.00026469918 0.00066924263)
(0.11510387 0.00026469918 0.00066924263)
(0.11762605 0.00093396932 -0.0002042267)
(0.11762605 0.00093396932 -0.0002042267)
(0.11892867 0.0015383912 7.5167765e-05)
(0.11892867 0.0015383912 7.5167765e-05)
(0.12502252 0.0011183278 0.00032829635)
(0.12502252 0.0011183278 0.00032829635)
(0.097754845 -0.0001586846 -0.0011107015)
(0.097754845 -0.0001586846 -0.0011107015)
(0.10554094 -8.3576393e-05 -0.000830032)
(0.10554094 -8.3576393e-05 -0.000830032)
(0.10714739 0.00017765939 1.8550169e-05)
(0.10714739 0.00017765939 1.8550169e-05)
(0.10903247 0.00038742914 0.00022282846)
(0.10903247 0.00038742914 0.00022282846)
(0.11258059 0.00067574772 0.00032887879)
(0.11258059 0.00067574772 0.00032887879)
(0.11517497 0.00048585195 0.00019991441)
(0.11517497 0.00048585195 0.00019991441)
(0.1196004 0.00022226107 0.00032240052)
(0.1196004 0.00022226107 0.00032240052)
(0.12359212 0.00061941364 -0.00017698678)
(0.12359212 0.00061941364 -0.00017698678)
(0.12499482 0.00051121563 -0.00016744)
(0.12499482 0.00051121563 -0.00016744)
(0.12809947 0.00049145033 8.2096624e-05)
(0.12809947 0.00049145033 8.2096624e-05)
(0.098966958 -1.1955721e-05 -0.00082491484)
(0.098966958 -1.1955721e-05 -0.00082491484)
(0.1084879 -0.00085054994 -0.00087457349)
(0.1084879 -0.00085054994 -0.00087457349)
(0.10989872 -0.0005792 0.00013726862)
(0.10989872 -0.0005792 0.00013726862)
(0.11175781 -0.00062204224 0.00039651943)
(0.11175781 -0.00062204224 0.00039651943)
(0.11580127 7.6242734e-05 0.00023668626)
(0.11580127 7.6242734e-05 0.00023668626)
(0.11818935 -1.566239e-05 0.00053296706)
(0.11818935 -1.566239e-05 0.00053296706)
(0.12227747 0.00011626918 -2.8751223e-05)
(0.12227747 0.00011626918 -2.8751223e-05)
(0.1263024 0.00025500624 9.4330967e-05)
(0.1263024 0.00025500624 9.4330967e-05)
(0.12817874 0.00039696734 -4.14041e-05)
(0.12817874 0.00039696734 -4.14041e-05)
(0.13009287 0.00036168657 0.00026290284)
(0.13009287 0.00036168657 0.00026290284)
(0.099922127 -5.2664498e-05 -0.00049188466)
(0.099922127 -5.2664498e-05 -0.00049188466)
(0.11072564 -0.0017103484 -0.00083925776)
(0.11072564 -0.0017103484 -0.00083925776)
(0.11215945 -0.0013619163 4.8125942e-05)
(0.11215945 -0.0013619163 4.8125942e-05)
(0.11407216 -0.0012111084 0.00017464165)
(0.11407216 -0.0012111084 0.00017464165)
(0.1175803 -0.00040867977 -5.2880362e-05)
(0.1175803 -0.00040867977 -5.2880362e-05)
(0.12045937 -0.0003227442 0.00051566538)
(0.12045937 -0.0003227442 0.00051566538)
(0.12411178 -6.1042346e-05 -0.00030296769)
(0.12411178 -6.1042346e-05 -0.00030296769)
(0.12801085 2.3433372e-05 -0.00014176163)
(0.12801085 2.3433372e-05 -0.00014176163)
(0.13057413 4.1336396e-05 0.00010693173)
(0.13057413 4.1336396e-05 0.00010693173)
(0.13221519 0.00022284952 -3.0421089e-05)
(0.13221519 0.00022284952 -3.0421089e-05)
(0.099981864 6.7580214e-05 -6.7662756e-05)
(0.099981864 6.7580214e-05 -6.7662756e-05)
(0.1124121 -0.0022977704 -0.00060460711)
(0.1124121 -0.0022977704 -0.00060460711)
(0.11425106 -0.0020103839 0.00014577261)
(0.11425106 -0.0020103839 0.00014577261)
(0.11565055 -0.001591464 -1.9912859e-05)
(0.11565055 -0.001591464 -1.9912859e-05)
(0.11948079 -0.00078029018 -8.0486659e-05)
(0.11948079 -0.00078029018 -8.0486659e-05)
(0.12191521 -0.00049222307 0.00055171342)
(0.12191521 -0.00049222307 0.00055171342)
(0.12561045 -0.00032332397 -0.00032257774)
(0.12561045 -0.00032332397 -0.00032257774)
(0.12913696 -0.00020359605 -0.00023128674)
(0.12913696 -0.00020359605 -0.00023128674)
(0.13208536 -0.00017229237 0.00019362941)
(0.13208536 -0.00017229237 0.00019362941)
(0.1343149 0.0001343716 1.2958424e-05)
(0.1343149 0.0001343716 1.2958424e-05)
(0.099600346 0.00032100469 0.0006919542)
(0.099600346 0.00032100469 0.0006919542)
(0.11339019 -0.002332077 -0.00028484165)
(0.11339019 -0.002332077 -0.00028484165)
(0.11573953 -0.0023262461 0.00025434825)
(0.11573953 -0.0023262461 0.00025434825)
(0.11686387 -0.0017480772 -0.00038415537)
(0.11686387 -0.0017480772 -0.00038415537)
(0.12075856 -0.0010928828 -0.000104644)
(0.12075856 -0.0010928828 -0.000104644)
(0.12273266 -0.00059200158 0.00039587214)
(0.12273266 -0.00059200158 0.00039587214)
(0.12671096 -0.00033631365 -0.00033639773)
(0.12671096 -0.00033631365 -0.00033639773)
(0.129655 -0.00032022674 -0.00028710197)
(0.129655 -0.00032022674 -0.00028710197)
(0.13313159 -0.00027570461 7.3131372e-05)
(0.13313159 -0.00027570461 7.3131372e-05)
(0.13537841 7.7841782e-05 -5.6379656e-07)
(0.13537841 7.7841782e-05 -5.6379656e-07)
(0.09951748 0.00043151055 0.0011349215)
(0.09951748 0.00043151055 0.0011349215)
(0.11290286 -0.0016739296 -0.00013160671)
(0.11290286 -0.0016739296 -0.00013160671)
(0.1160029 -0.0019031361 3.9051325e-05)
(0.1160029 -0.0019031361 3.9051325e-05)
(0.11767728 -0.0013125535 -0.00065660745)
(0.11767728 -0.0013125535 -0.00065660745)
(0.12111191 -0.00095720994 -0.00015393124)
(0.12111191 -0.00095720994 -0.00015393124)
(0.1229521 -0.0003307503 0.00024222903)
(0.1229521 -0.0003307503 0.00024222903)
(0.12707206 5.4226891e-05 -0.00037385269)
(0.12707206 5.4226891e-05 -0.00037385269)
(0.13041348 -8.9986172e-05 -0.00025981544)
(0.13041348 -8.9986172e-05 -0.00025981544)
(0.13384578 -0.00013043075 -8.9021456e-05)
(0.13384578 -0.00013043075 -8.9021456e-05)
(0.1357744 0.00026008818 -4.4320003e-05)
(0.1357744 0.00026008818 -4.4320003e-05)
(0.098458434 0.00065755219 0.0018102042)
(0.098458434 0.00065755219 0.0018102042)
(0.11014384 -0.00034183207 0.00038101445)
(0.11014384 -0.00034183207 0.00038101445)
(0.11469863 -0.00061842917 0.00016481253)
(0.11469863 -0.00061842917 0.00016481253)
(0.11697773 0.00014735932 -0.00053845844)
(0.11697773 0.00014735932 -0.00053845844)
(0.12058928 1.437445e-05 -0.00019196816)
(0.12058928 1.437445e-05 -0.00019196816)
(0.12285426 0.00053262715 0.00012076729)
(0.12285426 0.00053262715 0.00012076729)
(0.12630571 0.00089149434 -0.00032456293)
(0.12630571 0.00089149434 -0.00032456293)
(0.13050949 0.00069490486 4.464194e-05)
(0.13050949 0.00069490486 4.464194e-05)
(0.13386223 0.000502876 -0.00022435217)
(0.13386223 0.000502876 -0.00022435217)
(0.13584131 0.00060734633 -0.00011717255)
(0.13584131 0.00060734633 -0.00011717255)
(0.095262059 0.0015229136 0.0014659868)
(0.095262059 0.0015229136 0.0014659868)
(0.10587244 0.0019060162 0.00023109345)
(0.10587244 0.0019060162 0.00023109345)
(0.11075326 0.0018705567 -0.00028305872)
(0.11075326 0.0018705567 -0.00028305872)
(0.11477628 0.0021295131 -0.00064293093)
(0.11477628 0.0021295131 -0.00064293093)
(0.11898399 0.0018105 -0.00015862188)
(0.11898399 0.0018105 -0.00015862188)
(0.12180173 0.0019222529 -2.7741587e-05)
(0.12180173 0.0019222529 -2.7741587e-05)
(0.12495019 0.0020049256 -0.00030646191)
(0.12495019 0.0020049256 -0.00030646191)
(0.12903551 0.0018403732 0.00013464852)
(0.12903551 0.0018403732 0.00013464852)
(0.13319358 0.0016265033 -0.00023100957)
(0.13319358 0.0016265033 -0.00023100957)
(0.13606387 0.001427293 -0.00032598495)
(0.13606387 0.001427293 -0.00032598495)
(0.13758911 0.0019242799 -8.4359849e-05)
(0.13758911 0.0019242799 -8.4359849e-05)
(0.087258602 0.0020544067 0.00024117723)
(0.087258602 0.0020544067 0.00024117723)
(0.091278085 0.001496256 -0.00025588579)
(0.091278085 0.001496256 -0.00025588579)
(0.098013693 0.0029253833 2.2057803e-06)
(0.098013693 0.0029253833 2.2057803e-06)
(0.08861147 0.0026271049 0.00010331261)
(0.08861147 0.0026271049 0.00010331261)
(0.094599352 0.0014714674 0.00013640788)
(0.094599352 0.0014714674 0.00013640788)
(0.093003854 0.0030968127 5.2519917e-05)
(0.093003854 0.0030968127 5.2519917e-05)
(0.094796496 0.0023720614 0.00028427818)
(0.094796496 0.0023720614 0.00028427818)
(0.09443041 0.0023269736 0.00015488928)
(0.09443041 0.0023269736 0.00015488928)
(0.096017879 0.0035150562 0.00030614519)
(0.096017879 0.0035150562 0.00030614519)
(0.095798612 0.002348117 1.9833372e-05)
(0.095798612 0.002348117 1.9833372e-05)
(0.09728864 0.0030870013 0.00023344767)
(0.09728864 0.0030870013 0.00023344767)
(0.093653802 0.002585642 9.3168046e-05)
(0.093653802 0.002585642 9.3168046e-05)
(0.098156452 0.0032967984 -0.00042436707)
(0.098156452 0.0032967984 -0.00042436707)
(0.095677329 0.0033160323 0.00040671919)
(0.095677329 0.0033160323 0.00040671919)
(0.093498539 0.0033638425 -5.879327e-05)
(0.093498539 0.0033638425 -5.879327e-05)
(0.095248314 0.0017877088 -0.00011543494)
(0.095248314 0.0017877088 -0.00011543494)
(0.10010176 0.0015287324 0.00049180246)
(0.10010176 0.0015287324 0.00049180246)
(0.095240132 0.0021173337 4.5150246e-05)
(0.095240132 0.0021173337 4.5150246e-05)
(0.096242444 0.0014295453 9.8129349e-05)
(0.096242444 0.0014295453 9.8129349e-05)
(0.09755138 0.0016493839 0.00027994055)
(0.09755138 0.0016493839 0.00027994055)
(0.099280885 0.0019600059 -3.08389e-05)
(0.099280885 0.0019600059 -3.08389e-05)
(0.09286724 0.0025889963 0.0006723053)
(0.09286724 0.0025889963 0.0006723053)
(0.096687826 0.002322336 -0.00017068813)
(0.096687826 0.002322336 -0.00017068813)
(0.0979752 0.0010640363 0.00020466661)
(0.0979752 0.0010640363 0.00020466661)
(0.093925331 0.0016368808 0.00047648813)
(0.093925331 0.0016368808 0.00047648813)
(0.096578917 0.0020819298 -9.4888777e-05)
(0.096578917 0.0020819298 -9.4888777e-05)
(0.093854676 0.0024443734 0.00043524771)
(0.093854676 0.0024443734 0.00043524771)
(0.091478186 0.0024104025 -0.00010748905)
(0.091478186 0.0024104025 -0.00010748905)
(0.091915857 0.001493259 -0.00031055843)
(0.091915857 0.001493259 -0.00031055843)
(0.084031472 0.0014446323 0.00021018694)
(0.084031472 0.0014446323 0.00021018694)
(0.088205373 0.00116464 6.176328e-05)
(0.088205373 0.00116464 6.176328e-05)
(0.087007724 0.0012395897 0.00028896901)
(0.087007724 0.0012395897 0.00028896901)
(0.089566895 0.00097017905 -5.604883e-05)
(0.089566895 0.00097017905 -5.604883e-05)
(0.080156222 -0.00021816418 0.00038904895)
(0.080156222 -0.00021816418 0.00038904895)
(0.078503495 0.00026350698 0.00033176721)
(0.078503495 0.00026350698 0.00033176721)
(0.081433214 5.5662166e-05 0.00020636598)
(0.081433214 5.5662166e-05 0.00020636598)
(0.081040963 -0.00083795864 0.00038254138)
(0.081040963 -0.00083795864 0.00038254138)
(0.040094346 -0.00065062536 0.0001011199)
(0.040094346 -0.00065062536 0.0001011199)
(0.1092411 0.0017022158 -0.00012250219)
(0.1092411 0.0017022158 -0.00012250219)
(0.11310433 0.0022086633 -0.00030378825)
(0.11310433 0.0022086633 -0.00030378825)
(0.11860891 0.0024731471 -0.00015291049)
(0.11860891 0.0024731471 -0.00015291049)
(0.11447386 0.0013656415 0.00024508883)
(0.11447386 0.0013656415 0.00024508883)
(0.1166726 0.0014909535 -0.00028061623)
(0.1166726 0.0014909535 -0.00028061623)
(0.11561589 0.0020742619 -7.2286801e-05)
(0.11561589 0.0020742619 -7.2286801e-05)
(0.11632386 0.0016858118 -2.2898012e-05)
(0.11632386 0.0016858118 -2.2898012e-05)
(0.11807175 0.0029874319 -0.00030099944)
(0.11807175 0.0029874319 -0.00030099944)
(0.11767577 0.0025860238 0.00011996272)
(0.11767577 0.0025860238 0.00011996272)
(0.11879334 0.0023413793 -4.9212239e-05)
(0.11879334 0.0023413793 -4.9212239e-05)
(0.11813887 0.0019897436 -5.4800939e-05)
(0.11813887 0.0019897436 -5.4800939e-05)
(0.11792465 0.002205802 -0.00011464881)
(0.11792465 0.002205802 -0.00011464881)
(0.1198407 0.0020208475 -0.0004812276)
(0.1198407 0.0020208475 -0.0004812276)
(0.1181433 0.0018978191 0.00032951623)
(0.1181433 0.0018978191 0.00032951623)
(0.11836295 0.0027903955 5.6297284e-05)
(0.11836295 0.0027903955 5.6297284e-05)
(0.11754444 0.0016393114 -0.00027969771)
(0.11754444 0.0016393114 -0.00027969771)
(0.12080473 0.002370056 0.00013616138)
(0.12080473 0.002370056 0.00013616138)
(0.11930508 0.0021758162 0.00016864405)
(0.11930508 0.0021758162 0.00016864405)
(0.11768864 0.0011481858 0.00030897797)
(0.11768864 0.0011481858 0.00030897797)
(0.11760678 0.0013423774 0.00034609509)
(0.11760678 0.0013423774 0.00034609509)
(0.11976109 0.0013144177 -0.0001932713)
(0.11976109 0.0013144177 -0.0001932713)
(0.11702391 0.0012575719 0.0006294233)
(0.11702391 0.0012575719 0.0006294233)
(0.11910886 0.00080947933 -0.00033607348)
(0.11910886 0.00080947933 -0.00033607348)
(0.11942584 0.0011489089 -0.00044661736)
(0.11942584 0.0011489089 -0.00044661736)
(0.11977868 0.0015028216 -5.3460968e-05)
(0.11977868 0.0015028216 -5.3460968e-05)
(0.12026652 0.0020711778 -0.00032734285)
(0.12026652 0.0020711778 -0.00032734285)
(0.117561 0.001867243 0.00014073487)
(0.117561 0.001867243 0.00014073487)
(0.11475858 0.0014214504 9.2672139e-05)
(0.11475858 0.0014214504 9.2672139e-05)
(0.11549111 0.0012469694 -0.00065666628)
(0.11549111 0.0012469694 -0.00065666628)
(0.10742098 0.0011098346 0.0002782049)
(0.10742098 0.0011098346 0.0002782049)
(0.11056006 0.00093295252 -0.00010260798)
(0.11056006 0.00093295252 -0.00010260798)
(0.10643989 0.0010523386 0.00039964757)
(0.10643989 0.0010523386 0.00039964757)
(0.10763959 0.00013172045 -0.00029058363)
(0.10763959 0.00013172045 -0.00029058363)
(0.099703172 0.0003972479 0.00025915109)
(0.099703172 0.0003972479 0.00025915109)
(0.096371014 2.2454939e-06 0.00046873631)
(0.096371014 2.2454939e-06 0.00046873631)
(0.096947264 -0.00011490414 -0.00032039137)
(0.096947264 -0.00011490414 -0.00032039137)
(0.096276364 -0.00091624386 5.2924912e-05)
(0.096276364 -0.00091624386 5.2924912e-05)
(0.094165487 -0.0011324646 0.00031356898)
(0.094165487 -0.0011324646 0.00031356898)
(0.12326937 0.0019584669 0.00054088385)
(0.12326937 0.0019584669 0.00054088385)
(0.12501906 0.002717128 -0.00014649555)
(0.12501906 0.002717128 -0.00014649555)
(0.128366 0.0018969468 0.00033585402)
(0.128366 0.0018969468 0.00033585402)
(0.12691756 0.0016574363 0.00049495791)
(0.12691756 0.0016574363 0.00049495791)
(0.12898144 0.0016510557 -0.00015046464)
(0.12898144 0.0016510557 -0.00015046464)
(0.12614713 0.0019877689 0.00032871282)
(0.12614713 0.0019877689 0.00032871282)
(0.12844447 0.0019940394 0.00040833588)
(0.12844447 0.0019940394 0.00040833588)
(0.12904679 0.0020741849 -0.00042319459)
(0.12904679 0.0020741849 -0.00042319459)
(0.12929798 0.002141861 0.00079805418)
(0.12929798 0.002141861 0.00079805418)
(0.13038976 0.0018106167 -1.2148761e-05)
(0.13038976 0.0018106167 -1.2148761e-05)
(0.13020189 0.0016628697 0.0005622343)
(0.13020189 0.0016628697 0.0005622343)
(0.12981111 0.0023157432 0.00019342121)
(0.12981111 0.0023157432 0.00019342121)
(0.13004075 0.001842705 8.0932566e-05)
(0.13004075 0.001842705 8.0932566e-05)
(0.13080523 0.0016448521 0.0004681076)
(0.13080523 0.0016448521 0.0004681076)
(0.12972331 0.0019713715 0.00028196488)
(0.12972331 0.0019713715 0.00028196488)
(0.12999631 0.0021327039 9.6798692e-05)
(0.12999631 0.0021327039 9.6798692e-05)
(0.13211788 0.0020130768 0.00027109111)
(0.13211788 0.0020130768 0.00027109111)
(0.13151586 0.0017798277 0.00033381819)
(0.13151586 0.0017798277 0.00033381819)
(0.1286807 0.0020154192 0.00048154077)
(0.1286807 0.0020154192 0.00048154077)
(0.1295346 0.001689865 0.00068396196)
(0.1295346 0.001689865 0.00068396196)
(0.13110685 0.0016274172 0.00027288011)
(0.13110685 0.0016274172 0.00027288011)
(0.13002803 0.00067727027 0.00077229471)
(0.13002803 0.00067727027 0.00077229471)
(0.13063729 0.0007902759 0.00027077892)
(0.13063729 0.0007902759 0.00027077892)
(0.13072782 0.0011725611 -0.00049538839)
(0.13072782 0.0011725611 -0.00049538839)
(0.13232625 0.0014665311 0.00014739864)
(0.13232625 0.0014665311 0.00014739864)
(0.13233321 0.0013273183 -0.00023069443)
(0.13233321 0.0013273183 -0.00023069443)
(0.12897588 0.0014846144 0.0004449606)
(0.12897588 0.0014846144 0.0004449606)
(0.12706032 0.0014869574 0.00046019956)
(0.12706032 0.0014869574 0.00046019956)
(0.12769645 0.001688616 -0.00042745902)
(0.12769645 0.001688616 -0.00042745902)
(0.12288783 0.0016024803 2.1790305e-05)
(0.12288783 0.0016024803 2.1790305e-05)
(0.12154093 0.0010883657 0.00018526169)
(0.12154093 0.0010883657 0.00018526169)
(0.11858027 0.00053309269 0.00021431789)
(0.11858027 0.00053309269 0.00021431789)
(0.11658829 0.00043326827 0.00014414093)
(0.11658829 0.00043326827 0.00014414093)
(0.1115777 0.0012405791 0.000494065)
(0.1115777 0.0012405791 0.000494065)
(0.10603935 8.6092686e-05 0.00065431244)
(0.10603935 8.6092686e-05 0.00065431244)
(0.10579736 -0.00014853002 1.351221e-05)
(0.10579736 -0.00014853002 1.351221e-05)
(0.10366104 -3.5100764e-05 0.00062701915)
(0.10366104 -3.5100764e-05 0.00062701915)
(0.10242572 0.00041528551 0.00028742954)
(0.10242572 0.00041528551 0.00028742954)
(0.12900043 0.0020103037 0.00020852554)
(0.12900043 0.0020103037 0.00020852554)
(0.12935895 0.0022616539 -0.00012911936)
(0.12935895 0.0022616539 -0.00012911936)
(0.13183012 0.001818226 0.00027304722)
(0.13183012 0.001818226 0.00027304722)
(0.13253246 0.00166597 0.00020419767)
(0.13253246 0.00166597 0.00020419767)
(0.13425759 0.0017036059 -0.00035665027)
(0.13425759 0.0017036059 -0.00035665027)
(0.13177332 0.0017611369 2.4650472e-05)
(0.13177332 0.0017611369 2.4650472e-05)
(0.13385506 0.0016914581 0.00024250387)
(0.13385506 0.0016914581 0.00024250387)
(0.13466498 0.0012697248 -0.00041975177)
(0.13466498 0.0012697248 -0.00041975177)
(0.13427719 0.0018288359 0.00012587438)
(0.13427719 0.0018288359 0.00012587438)
(0.1345817 0.0015676737 0.00018281628)
(0.1345817 0.0015676737 0.00018281628)
(0.13452395 0.0015998362 -4.2981016e-05)
(0.13452395 0.0015998362 -4.2981016e-05)
(0.13477609 0.0021467573 -0.0001113032)
(0.13477609 0.0021467573 -0.0001113032)
(0.13494121 0.0020404914 5.6515723e-05)
(0.13494121 0.0020404914 5.6515723e-05)
(0.13552169 0.001450845 -2.0393455e-05)
(0.13552169 0.001450845 -2.0393455e-05)
(0.13509218 0.0015841114 0.00051175651)
(0.13509218 0.0015841114 0.00051175651)
(0.13602611 0.0025148476 -0.00014875623)
(0.13602611 0.0025148476 -0.00014875623)
(0.13650651 0.0016841987 7.6464398e-05)
(0.13650651 0.0016841987 7.6464398e-05)
(0.1356683 0.0014960177 -4.6489586e-05)
(0.1356683 0.0014960177 -4.6489586e-05)
(0.13459937 0.0020596222 0.00025063279)
(0.13459937 0.0020596222 0.00025063279)
(0.13443703 0.0017045359 0.0001891493)
(0.13443703 0.0017045359 0.0001891493)
(0.13611926 0.0014481338 0.00015168288)
(0.13611926 0.0014481338 0.00015168288)
(0.13335276 0.0010351295 0.00031300126)
(0.13335276 0.0010351295 0.00031300126)
(0.13461508 0.00098447481 0.00035265445)
(0.13461508 0.00098447481 0.00035265445)
(0.1361028 0.0010189851 -0.00060176721)
(0.1361028 0.0010189851 -0.00060176721)
(0.13697492 0.0012588878 -0.00034235937)
(0.13697492 0.0012588878 -0.00034235937)
(0.13630905 0.0011013032 -0.00043998613)
(0.13630905 0.0011013032 -0.00043998613)
(0.1347256 0.0017240966 8.6319178e-05)
(0.1347256 0.0017240966 8.6319178e-05)
(0.1324551 0.0018870455 0.00029761511)
(0.1324551 0.0018870455 0.00029761511)
(0.13247155 0.001987926 -0.00021869407)
(0.13247155 0.001987926 -0.00021869407)
(0.12934554 0.0021449585 -0.00019052507)
(0.12934554 0.0021449585 -0.00019052507)
(0.12588823 0.0012979247 0.00013171414)
(0.12588823 0.0012979247 0.00013171414)
(0.12424254 0.00069377265 0.00016039706)
(0.12424254 0.00069377265 0.00016039706)
(0.11998486 0.00096717198 -5.1382103e-06)
(0.11998486 0.00096717198 -5.1382103e-06)
(0.11622682 0.0010346763 0.00016021056)
(0.11622682 0.0010346763 0.00016021056)
(0.11146823 0.00085764034 0.00045791998)
(0.11146823 0.00085764034 0.00045791998)
(0.10961412 0.001017714 0.00017220119)
(0.10961412 0.001017714 0.00017220119)
(0.10681244 0.00070116788 0.00034185757)
(0.10681244 0.00070116788 0.00034185757)
(0.10556115 0.00093819689 -0.00037720727)
(0.10556115 0.00093819689 -0.00037720727)
(0.13192766 0.0015631222 0.00010360897)
(0.13192766 0.0015631222 0.00010360897)
(0.13216631 0.0015655091 0.00015868579)
(0.13216631 0.0015655091 0.00015868579)
(0.13428918 0.001430964 0.00060569785)
(0.13428918 0.001430964 0.00060569785)
(0.13478477 0.0011767915 0.00023369374)
(0.13478477 0.0011767915 0.00023369374)
(0.13683569 0.0018459128 -0.00021751533)
(0.13683569 0.0018459128 -0.00021751533)
(0.13548604 0.0012035495 0.00030571642)
(0.13548604 0.0012035495 0.00030571642)
(0.13640307 0.001520031 0.0001237553)
(0.13640307 0.001520031 0.0001237553)
(0.13767798 0.0013804746 -0.00017211043)
(0.13767798 0.0013804746 -0.00017211043)
(0.1371661 0.0013065696 -1.6179512e-05)
(0.1371661 0.0013065696 -1.6179512e-05)
(0.13766359 0.0015120595 0.00036930469)
(0.13766359 0.0015120595 0.00036930469)
(0.13818434 0.0016319305 -0.00018335644)
(0.13818434 0.0016319305 -0.00018335644)
(0.13774484 0.0018103955 -0.00030402033)
(0.13774484 0.0018103955 -0.00030402033)
(0.13788088 0.0018757082 0.00042155076)
(0.13788088 0.0018757082 0.00042155076)
(0.13837214 0.001428115 0.00014722203)
(0.13837214 0.001428115 0.00014722203)
(0.13841226 0.0014769744 0.00032932547)
(0.13841226 0.0014769744 0.00032932547)
(0.13939681 0.0022179913 3.2646321e-05)
(0.13939681 0.0022179913 3.2646321e-05)
(0.13945648 0.0016238074 0.00031199119)
(0.13945648 0.0016238074 0.00031199119)
(0.13818221 0.0014884795 0.00035022898)
(0.13818221 0.0014884795 0.00035022898)
(0.13874185 0.0017494372 0.00017630832)
(0.13874185 0.0017494372 0.00017630832)
(0.13756903 0.0017439103 0.00027285848)
(0.13756903 0.0017439103 0.00027285848)
(0.13852123 0.0017199459 0.00015543138)
(0.13852123 0.0017199459 0.00015543138)
(0.13489949 0.0014596893 0.00039396974)
(0.13489949 0.0014596893 0.00039396974)
(0.13667502 0.0010453433 0.00049790447)
(0.13667502 0.0010453433 0.00049790447)
(0.13947986 0.0010906076 -0.00032002785)
(0.13947986 0.0010906076 -0.00032002785)
(0.13941139 0.00093473079 -0.00036829636)
(0.13941139 0.00093473079 -0.00036829636)
(0.13856854 0.0013240065 -0.00040179928)
(0.13856854 0.0013240065 -0.00040179928)
(0.13877877 0.0017953148 0.00010290123)
(0.13877877 0.0017953148 0.00010290123)
(0.13604187 0.0020286942 0.00027016282)
(0.13604187 0.0020286942 0.00027016282)
(0.135866 0.0021390827 -7.7640624e-05)
(0.135866 0.0021390827 -7.7640624e-05)
(0.13262111 0.0020985759 -4.1364181e-05)
(0.13262111 0.0020985759 -4.1364181e-05)
(0.12891907 0.0014051141 0.00043928177)
(0.12891907 0.0014051141 0.00043928177)
(0.12666663 0.0012335428 -8.4079409e-05)
(0.12666663 0.0012335428 -8.4079409e-05)
(0.12273819 0.0013296815 7.762653e-05)
(0.12273819 0.0013296815 7.762653e-05)
(0.11901631 0.00089376036 9.6608582e-05)
(0.11901631 0.00089376036 9.6608582e-05)
(0.1154176 0.0018383246 0.00031764387)
(0.1154176 0.0018383246 0.00031764387)
(0.11248527 0.0017245189 0.00040021618)
(0.11248527 0.0017245189 0.00040021618)
(0.10883457 0.0011676387 0.00078756957)
(0.10883457 0.0011676387 0.00078756957)
(0.10785316 0.0012541396 -0.00051881296)
(0.10785316 0.0012541396 -0.00051881296)
(0.13425262 0.00074097923 1.8937306e-05)
(0.13425262 0.00074097923 1.8937306e-05)
(0.13454246 0.00092096586 0.00016331745)
(0.13454246 0.00092096586 0.00016331745)
(0.13597347 0.0010827956 0.0005581175)
(0.13597347 0.0010827956 0.0005581175)
(0.13687306 0.0011848862 -0.00012419486)
(0.13687306 0.0011848862 -0.00012419486)
(0.13876012 0.0016946225 -0.0003170573)
(0.13876012 0.0016946225 -0.0003170573)
(0.13790777 0.00099098433 0.00036049763)
(0.13790777 0.00099098433 0.00036049763)
(0.13854289 0.0015021263 -7.428337e-05)
(0.13854289 0.0015021263 -7.428337e-05)
(0.1398911 0.0013427097 2.0681166e-05)
(0.1398911 0.0013427097 2.0681166e-05)
(0.13963746 0.00098402582 -0.00017892551)
(0.13963746 0.00098402582 -0.00017892551)
(0.14022091 0.0015344418 0.00037651337)
(0.14022091 0.0015344418 0.00037651337)
(0.14121801 0.0015788744 -0.00035696743)
(0.14121801 0.0015788744 -0.00035696743)
(0.14036856 0.0015534827 -0.00034270926)
(0.14036856 0.0015534827 -0.00034270926)
(0.14053209 0.0017688272 0.00031069654)
(0.14053209 0.0017688272 0.00031069654)
(0.14084722 0.0015858723 7.229999e-05)
(0.14084722 0.0015858723 7.229999e-05)
(0.14066947 0.0014458173 0.00011149702)
(0.14066947 0.0014458173 0.00011149702)
(0.14111132 0.0018020238 0.0001247284)
(0.14111132 0.0018020238 0.0001247284)
(0.14161099 0.0015462749 0.00018096893)
(0.14161099 0.0015462749 0.00018096893)
(0.14022774 0.001727597 0.00018338131)
(0.14022774 0.001727597 0.00018338131)
(0.14125463 0.0016287412 6.3834588e-06)
(0.14125463 0.0016287412 6.3834588e-06)
(0.1398782 0.0017302175 5.2597552e-05)
(0.1398782 0.0017302175 5.2597552e-05)
(0.14045209 0.0018382647 -8.4699086e-05)
(0.14045209 0.0018382647 -8.4699086e-05)
(0.13730453 0.0017187781 0.00049672614)
(0.13730453 0.0017187781 0.00049672614)
(0.13874044 0.0014803325 0.00032424604)
(0.13874044 0.0014803325 0.00032424604)
(0.1411875 0.0011632051 -0.00013786734)
(0.1411875 0.0011632051 -0.00013786734)
(0.14133339 0.0009259716 -0.00041910664)
(0.14133339 0.0009259716 -0.00041910664)
(0.14092842 0.001465125 -0.00046105586)
(0.14092842 0.001465125 -0.00046105586)
(0.14109416 0.0017646282 -0.0003014354)
(0.14109416 0.0017646282 -0.0003014354)
(0.13838463 0.0020213385 0.00026959162)
(0.13838463 0.0020213385 0.00026959162)
(0.13799278 0.0021620463 -0.00031671546)
(0.13799278 0.0021620463 -0.00031671546)
(0.13469269 0.0019301499 4.4771292e-05)
(0.13469269 0.0019301499 4.4771292e-05)
(0.13131204 0.0017634801 0.00040694928)
(0.13131204 0.0017634801 0.00040694928)
(0.12863275 0.001660764 -5.713314e-05)
(0.12863275 0.001660764 -5.713314e-05)
(0.12482219 0.001832123 -3.4582732e-05)
(0.12482219 0.001832123 -3.4582732e-05)
(0.1211247 0.0013831468 -0.000161185)
(0.1211247 0.0013831468 -0.000161185)
(0.11807036 0.0021067913 0.00015846063)
(0.11807036 0.0021067913 0.00015846063)
(0.1148753 0.0020309111 0.00043338186)
(0.1148753 0.0020309111 0.00043338186)
(0.11061039 0.0018140567 0.00067915568)
(0.11061039 0.0018140567 0.00067915568)
(0.11017954 0.0020044652 -0.0005151942)
(0.11017954 0.0020044652 -0.0005151942)
(0.13587158 0.00051875558 8.3212426e-05)
(0.13587158 0.00051875558 8.3212426e-05)
(0.13646609 0.00053604606 0.00016506287)
(0.13646609 0.00053604606 0.00016506287)
(0.13706874 0.00094208489 0.00067463855)
(0.13706874 0.00094208489 0.00067463855)
(0.13886423 0.0012046036 -0.00010195084)
(0.13886423 0.0012046036 -0.00010195084)
(0.14016826 0.0013465883 -0.000280626)
(0.14016826 0.0013465883 -0.000280626)
(0.13968256 0.0011345774 0.00039633149)
(0.13968256 0.0011345774 0.00039633149)
(0.14039135 0.0012772342 3.9215344e-06)
(0.14039135 0.0012772342 3.9215344e-06)
(0.14137743 0.0013309683 0.00019154237)
(0.14137743 0.0013309683 0.00019154237)
(0.14157853 0.0012267122 -0.00022354766)
(0.14157853 0.0012267122 -0.00022354766)
(0.14224302 0.0016445168 0.00025331621)
(0.14224302 0.0016445168 0.00025331621)
(0.14315742 0.0015600448 -0.00026371421)
(0.14315742 0.0015600448 -0.00026371421)
(0.14259223 0.0015181106 -0.00015345966)
(0.14259223 0.0015181106 -0.00015345966)
(0.14238143 0.0017101123 0.00026735744)
(0.14238143 0.0017101123 0.00026735744)
(0.14230074 0.0017587506 -6.7999591e-06)
(0.14230074 0.0017587506 -6.7999591e-06)
(0.14247985 0.0012537346 0.00019996919)
(0.14247985 0.0012537346 0.00019996919)
(0.14280282 0.0017305021 8.5003489e-05)
(0.14280282 0.0017305021 8.5003489e-05)
(0.14313649 0.0016173458 0.00022097153)
(0.14313649 0.0016173458 0.00022097153)
(0.14211268 0.0018872494 0.00012708606)
(0.14211268 0.0018872494 0.00012708606)
(0.14288917 0.0016419942 2.8045467e-05)
(0.14288917 0.0016419942 2.8045467e-05)
(0.14175752 0.0017297927 5.5205495e-05)
(0.14175752 0.0017297927 5.5205495e-05)
(0.14236994 0.0018899642 4.4443986e-05)