/*--------------------------------*- C++ -*----------------------------------*\
| =========                 |                                                 |
| \\      /  F ield         | OpenFOAM: The Open Source CFD Toolbox           |
|  \\    /   O peration     | Version:  2.1.x                                 |
|   \\  /    A nd           | Web:      www.OpenFOAM.org                      |
|    \\/     M anipulation  |                                                 |
\*---------------------------------------------------------------------------*/
FoamFile
{
    version     2.0;
    format      ascii;
    class       dictionary;
    object      sampleDict;
}
// * * * * * * * * * * * * * * * * * * * * * * * * * * * * * * * * * * * * //
setFormat raw;

surfaceFormat raw;

formatOptions
{
    ensight
    {
        format  ascii;
    }
}

interpolationScheme cellPatchConstrained;

fields
(
    p
    U
);
sets
(
    somePoints_-0.45
    {
        type    cloud;
        axis    xyz;
        points  (
                 (0.0 -0.45 0.00500806240849)
                 (0.0 -0.45 0.00600806240849)
                 (0.0 -0.45 0.00800806240849)
                 (0.0 -0.45 0.0100080624085)
                 (0.0 -0.45 0.0120080624085)
                 (0.0 -0.45 0.0150080624085)
                 (0.0 -0.45 0.0200080624085)
                 (0.0 -0.45 0.0250080624085)
                 (0.0 -0.45 0.0300080624085)
                 (0.0 -0.45 0.0350080624085)
                 (0.0 -0.45 0.0400080624085)
                 (0.0 -0.45 0.0500080624085)
                 (0.0 -0.45 0.0600080624085)
                 (0.0 -0.45 0.0700080624085)
                 (0.0 -0.45 0.0800080624085)
                 (0.0 -0.45 0.100008062408)
                 (0.0 -0.45 0.120008062408)
                 (0.0 -0.45 0.150008062408)
                 (0.0 -0.45 0.200008062408)
                 (0.0 -0.45 0.250008062408)
                 (0.0 -0.45 0.300008062408)
                 (0.0 -0.45 0.350008062408)
                 (0.0 -0.45 0.400008062408)
                 (0.0 -0.45 0.450008062408)
                 (0.0 -0.45 0.500008062408)
                 (0.04 -0.45 0.00513620819861)
                 (0.04 -0.45 0.00613620819861)
                 (0.04 -0.45 0.00813620819861)
                 (0.04 -0.45 0.0101362081986)
                 (0.04 -0.45 0.0121362081986)
                 (0.04 -0.45 0.0151362081986)
                 (0.04 -0.45 0.0201362081986)
                 (0.04 -0.45 0.0251362081986)
                 (0.04 -0.45 0.0301362081986)
                 (0.04 -0.45 0.0351362081986)
                 (0.04 -0.45 0.0401362081986)
                 (0.04 -0.45 0.0501362081986)
                 (0.04 -0.45 0.0601362081986)
                 (0.04 -0.45 0.0701362081986)
                 (0.04 -0.45 0.0801362081986)
                 (0.04 -0.45 0.100136208199)
                 (0.04 -0.45 0.120136208199)
                 (0.04 -0.45 0.150136208199)
                 (0.04 -0.45 0.200136208199)
                 (0.04 -0.45 0.250136208199)
                 (0.04 -0.45 0.300136208199)
                 (0.04 -0.45 0.350136208199)
                 (0.04 -0.45 0.400136208199)
                 (0.04 -0.45 0.450136208199)
                 (0.04 -0.45 0.500136208199)
                 (0.08 -0.45 0.00556440905901)
                 (0.08 -0.45 0.00656440905901)
                 (0.08 -0.45 0.00856440905901)
                 (0.08 -0.45 0.010564409059)
                 (0.08 -0.45 0.012564409059)
                 (0.08 -0.45 0.015564409059)
                 (0.08 -0.45 0.020564409059)
                 (0.08 -0.45 0.025564409059)
                 (0.08 -0.45 0.030564409059)
                 (0.08 -0.45 0.035564409059)
                 (0.08 -0.45 0.040564409059)
                 (0.08 -0.45 0.050564409059)
                 (0.08 -0.45 0.060564409059)
                 (0.08 -0.45 0.070564409059)
                 (0.08 -0.45 0.080564409059)
                 (0.08 -0.45 0.100564409059)
                 (0.08 -0.45 0.120564409059)
                 (0.08 -0.45 0.150564409059)
                 (0.08 -0.45 0.200564409059)
                 (0.08 -0.45 0.250564409059)
                 (0.08 -0.45 0.300564409059)
                 (0.08 -0.45 0.350564409059)
                 (0.08 -0.45 0.400564409059)
                 (0.08 -0.45 0.450564409059)
                 (0.08 -0.45 0.500564409059)
                 (0.12 -0.45 0.00625458240739)
                 (0.12 -0.45 0.00725458240739)
                 (0.12 -0.45 0.00925458240739)
                 (0.12 -0.45 0.0112545824074)
                 (0.12 -0.45 0.0132545824074)
                 (0.12 -0.45 0.0162545824074)
                 (0.12 -0.45 0.0212545824074)
                 (0.12 -0.45 0.0262545824074)
                 (0.12 -0.45 0.0312545824074)
                 (0.12 -0.45 0.0362545824074)
                 (0.12 -0.45 0.0412545824074)
                 (0.12 -0.45 0.0512545824074)
                 (0.12 -0.45 0.0612545824074)
                 (0.12 -0.45 0.0712545824074)
                 (0.12 -0.45 0.0812545824074)
                 (0.12 -0.45 0.101254582407)
                 (0.12 -0.45 0.121254582407)
                 (0.12 -0.45 0.151254582407)
                 (0.12 -0.45 0.201254582407)
                 (0.12 -0.45 0.251254582407)
                 (0.12 -0.45 0.301254582407)
                 (0.12 -0.45 0.351254582407)
                 (0.12 -0.45 0.401254582407)
                 (0.12 -0.45 0.451254582407)
                 (0.12 -0.45 0.501254582407)
                 (0.16 -0.45 0.00752112750243)
                 (0.16 -0.45 0.00852112750243)
                 (0.16 -0.45 0.0105211275024)
                 (0.16 -0.45 0.0125211275024)
                 (0.16 -0.45 0.0145211275024)
                 (0.16 -0.45 0.0175211275024)
                 (0.16 -0.45 0.0225211275024)
                 (0.16 -0.45 0.0275211275024)
                 (0.16 -0.45 0.0325211275024)
                 (0.16 -0.45 0.0375211275024)
                 (0.16 -0.45 0.0425211275024)
                 (0.16 -0.45 0.0525211275024)
                 (0.16 -0.45 0.0625211275024)
                 (0.16 -0.45 0.0725211275024)
                 (0.16 -0.45 0.0825211275024)
                 (0.16 -0.45 0.102521127502)
                 (0.16 -0.45 0.122521127502)
                 (0.16 -0.45 0.152521127502)
                 (0.16 -0.45 0.202521127502)
                 (0.16 -0.45 0.252521127502)
                 (0.16 -0.45 0.302521127502)
                 (0.16 -0.45 0.352521127502)
                 (0.16 -0.45 0.402521127502)
                 (0.16 -0.45 0.452521127502)
                 (0.16 -0.45 0.502521127502)
                 (0.2 -0.45 0.00885800958332)
                 (0.2 -0.45 0.00985800958332)
                 (0.2 -0.45 0.0118580095833)
                 (0.2 -0.45 0.0138580095833)
                 (0.2 -0.45 0.0158580095833)
                 (0.2 -0.45 0.0188580095833)
                 (0.2 -0.45 0.0238580095833)
                 (0.2 -0.45 0.0288580095833)
                 (0.2 -0.45 0.0338580095833)
                 (0.2 -0.45 0.0388580095833)
                 (0.2 -0.45 0.0438580095833)
                 (0.2 -0.45 0.0538580095833)
                 (0.2 -0.45 0.0638580095833)
                 (0.2 -0.45 0.0738580095833)
                 (0.2 -0.45 0.0838580095833)
                 (0.2 -0.45 0.103858009583)
                 (0.2 -0.45 0.123858009583)
                 (0.2 -0.45 0.153858009583)
                 (0.2 -0.45 0.203858009583)
                 (0.2 -0.45 0.253858009583)
                 (0.2 -0.45 0.303858009583)
                 (0.2 -0.45 0.353858009583)
                 (0.2 -0.45 0.403858009583)
                 (0.2 -0.45 0.453858009583)
                 (0.2 -0.45 0.503858009583)
                 (0.24 -0.45 0.0115403615596)
                 (0.24 -0.45 0.0125403615596)
                 (0.24 -0.45 0.0145403615596)
                 (0.24 -0.45 0.0165403615596)
                 (0.24 -0.45 0.0185403615596)
                 (0.24 -0.45 0.0215403615596)
                 (0.24 -0.45 0.0265403615596)
                 (0.24 -0.45 0.0315403615596)
                 (0.24 -0.45 0.0365403615596)
                 (0.24 -0.45 0.0415403615596)
                 (0.24 -0.45 0.0465403615596)
                 (0.24 -0.45 0.0565403615596)
                 (0.24 -0.45 0.0665403615596)
                 (0.24 -0.45 0.0765403615596)
                 (0.24 -0.45 0.0865403615596)
                 (0.24 -0.45 0.10654036156)
                 (0.24 -0.45 0.12654036156)
                 (0.24 -0.45 0.15654036156)
                 (0.24 -0.45 0.20654036156)
                 (0.24 -0.45 0.25654036156)
                 (0.24 -0.45 0.30654036156)
                 (0.24 -0.45 0.35654036156)
                 (0.24 -0.45 0.40654036156)
                 (0.24 -0.45 0.45654036156)
                 (0.24 -0.45 0.50654036156)
                 (0.28 -0.45 0.0136301008503)
                 (0.28 -0.45 0.0146301008503)
                 (0.28 -0.45 0.0166301008503)
                 (0.28 -0.45 0.0186301008503)
                 (0.28 -0.45 0.0206301008503)
                 (0.28 -0.45 0.0236301008503)
                 (0.28 -0.45 0.0286301008503)
                 (0.28 -0.45 0.0336301008503)
                 (0.28 -0.45 0.0386301008503)
                 (0.28 -0.45 0.0436301008503)
                 (0.28 -0.45 0.0486301008503)
                 (0.28 -0.45 0.0586301008503)
                 (0.28 -0.45 0.0686301008503)
                 (0.28 -0.45 0.0786301008503)
                 (0.28 -0.45 0.0886301008503)
                 (0.28 -0.45 0.10863010085)
                 (0.28 -0.45 0.12863010085)
                 (0.28 -0.45 0.15863010085)
                 (0.28 -0.45 0.20863010085)
                 (0.28 -0.45 0.25863010085)
                 (0.28 -0.45 0.30863010085)
                 (0.28 -0.45 0.35863010085)
                 (0.28 -0.45 0.40863010085)
                 (0.28 -0.45 0.45863010085)
                 (0.28 -0.45 0.50863010085)
                 (0.32 -0.45 0.018306578417)
                 (0.32 -0.45 0.019306578417)
                 (0.32 -0.45 0.021306578417)
                 (0.32 -0.45 0.023306578417)
                 (0.32 -0.45 0.025306578417)
                 (0.32 -0.45 0.028306578417)
                 (0.32 -0.45 0.033306578417)
                 (0.32 -0.45 0.038306578417)
                 (0.32 -0.45 0.043306578417)
                 (0.32 -0.45 0.048306578417)
                 (0.32 -0.45 0.053306578417)
                 (0.32 -0.45 0.063306578417)
                 (0.32 -0.45 0.073306578417)
                 (0.32 -0.45 0.083306578417)
                 (0.32 -0.45 0.093306578417)
                 (0.32 -0.45 0.113306578417)
                 (0.32 -0.45 0.133306578417)
                 (0.32 -0.45 0.163306578417)
                 (0.32 -0.45 0.213306578417)
                 (0.32 -0.45 0.263306578417)
                 (0.32 -0.45 0.313306578417)
                 (0.32 -0.45 0.363306578417)
                 (0.32 -0.45 0.413306578417)
                 (0.32 -0.45 0.463306578417)
                 (0.32 -0.45 0.513306578417)
                 (0.36 -0.45 0.0211445535682)
                 (0.36 -0.45 0.0221445535682)
                 (0.36 -0.45 0.0241445535682)
                 (0.36 -0.45 0.0261445535682)
                 (0.36 -0.45 0.0281445535682)
                 (0.36 -0.45 0.0311445535682)
                 (0.36 -0.45 0.0361445535682)
                 (0.36 -0.45 0.0411445535682)
                 (0.36 -0.45 0.0461445535682)
                 (0.36 -0.45 0.0511445535682)
                 (0.36 -0.45 0.0561445535682)
                 (0.36 -0.45 0.0661445535682)
                 (0.36 -0.45 0.0761445535682)
                 (0.36 -0.45 0.0861445535682)
                 (0.36 -0.45 0.0961445535682)
                 (0.36 -0.45 0.116144553568)
                 (0.36 -0.45 0.136144553568)
                 (0.36 -0.45 0.166144553568)
                 (0.36 -0.45 0.216144553568)
                 (0.36 -0.45 0.266144553568)
                 (0.36 -0.45 0.316144553568)
                 (0.36 -0.45 0.366144553568)
                 (0.36 -0.45 0.416144553568)
                 (0.36 -0.45 0.466144553568)
                 (0.36 -0.45 0.516144553568)
                 (0.4 -0.45 0.027967619335)
                 (0.4 -0.45 0.028967619335)
                 (0.4 -0.45 0.030967619335)
                 (0.4 -0.45 0.032967619335)
                 (0.4 -0.45 0.034967619335)
                 (0.4 -0.45 0.037967619335)
                 (0.4 -0.45 0.042967619335)
                 (0.4 -0.45 0.047967619335)
                 (0.4 -0.45 0.052967619335)
                 (0.4 -0.45 0.057967619335)
                 (0.4 -0.45 0.062967619335)
                 (0.4 -0.45 0.072967619335)
                 (0.4 -0.45 0.082967619335)
                 (0.4 -0.45 0.092967619335)
                 (0.4 -0.45 0.102967619335)
                 (0.4 -0.45 0.122967619335)
                 (0.4 -0.45 0.142967619335)
                 (0.4 -0.45 0.172967619335)
                 (0.4 -0.45 0.222967619335)
                 (0.4 -0.45 0.272967619335)
                 (0.4 -0.45 0.322967619335)
                 (0.4 -0.45 0.372967619335)
                 (0.4 -0.45 0.422967619335)
                 (0.4 -0.45 0.472967619335)
                 (0.4 -0.45 0.522967619335)
                 (0.44 -0.45 0.0313086721994)
                 (0.44 -0.45 0.0323086721994)
                 (0.44 -0.45 0.0343086721994)
                 (0.44 -0.45 0.0363086721994)
                 (0.44 -0.45 0.0383086721994)
                 (0.44 -0.45 0.0413086721994)
                 (0.44 -0.45 0.0463086721994)
                 (0.44 -0.45 0.0513086721994)
                 (0.44 -0.45 0.0563086721994)
                 (0.44 -0.45 0.0613086721994)
                 (0.44 -0.45 0.0663086721994)
                 (0.44 -0.45 0.0763086721994)
                 (0.44 -0.45 0.0863086721994)
                 (0.44 -0.45 0.0963086721994)
                 (0.44 -0.45 0.106308672199)
                 (0.44 -0.45 0.126308672199)
                 (0.44 -0.45 0.146308672199)
                 (0.44 -0.45 0.176308672199)
                 (0.44 -0.45 0.226308672199)
                 (0.44 -0.45 0.276308672199)
                 (0.44 -0.45 0.326308672199)
                 (0.44 -0.45 0.376308672199)
                 (0.44 -0.45 0.426308672199)
                 (0.44 -0.45 0.476308672199)
                 (0.44 -0.45 0.526308672199)
                 (0.48 -0.45 0.0396307173907)
                 (0.48 -0.45 0.0406307173907)
                 (0.48 -0.45 0.0426307173907)
                 (0.48 -0.45 0.0446307173907)
                 (0.48 -0.45 0.0466307173907)
                 (0.48 -0.45 0.0496307173907)
                 (0.48 -0.45 0.0546307173907)
                 (0.48 -0.45 0.0596307173907)
                 (0.48 -0.45 0.0646307173907)
                 (0.48 -0.45 0.0696307173907)
                 (0.48 -0.45 0.0746307173907)
                 (0.48 -0.45 0.0846307173907)
                 (0.48 -0.45 0.0946307173907)
                 (0.48 -0.45 0.104630717391)
                 (0.48 -0.45 0.114630717391)
                 (0.48 -0.45 0.134630717391)
                 (0.48 -0.45 0.154630717391)
                 (0.48 -0.45 0.184630717391)
                 (0.48 -0.45 0.234630717391)
                 (0.48 -0.45 0.284630717391)
                 (0.48 -0.45 0.334630717391)
                 (0.48 -0.45 0.384630717391)
                 (0.48 -0.45 0.434630717391)
                 (0.48 -0.45 0.484630717391)
                 (0.48 -0.45 0.534630717391)
                 (0.52 -0.45 0.042927758684)
                 (0.52 -0.45 0.043927758684)
                 (0.52 -0.45 0.045927758684)
                 (0.52 -0.45 0.047927758684)
                 (0.52 -0.45 0.049927758684)
                 (0.52 -0.45 0.052927758684)
                 (0.52 -0.45 0.057927758684)
                 (0.52 -0.45 0.062927758684)
                 (0.52 -0.45 0.067927758684)
                 (0.52 -0.45 0.072927758684)
                 (0.52 -0.45 0.077927758684)
                 (0.52 -0.45 0.087927758684)
                 (0.52 -0.45 0.097927758684)
                 (0.52 -0.45 0.107927758684)
                 (0.52 -0.45 0.117927758684)
                 (0.52 -0.45 0.137927758684)
                 (0.52 -0.45 0.157927758684)
                 (0.52 -0.45 0.187927758684)
                 (0.52 -0.45 0.237927758684)
                 (0.52 -0.45 0.287927758684)
                 (0.52 -0.45 0.337927758684)
                 (0.52 -0.45 0.387927758684)
                 (0.52 -0.45 0.437927758684)
                 (0.52 -0.45 0.487927758684)
                 (0.52 -0.45 0.537927758684)
                 (0.56 -0.45 0.0512351028936)
                 (0.56 -0.45 0.0522351028936)
                 (0.56 -0.45 0.0542351028936)
                 (0.56 -0.45 0.0562351028936)
                 (0.56 -0.45 0.0582351028936)
                 (0.56 -0.45 0.0612351028936)
                 (0.56 -0.45 0.0662351028936)
                 (0.56 -0.45 0.0712351028936)
                 (0.56 -0.45 0.0762351028936)
                 (0.56 -0.45 0.0812351028936)
                 (0.56 -0.45 0.0862351028936)
                 (0.56 -0.45 0.0962351028936)
                 (0.56 -0.45 0.106235102894)
                 (0.56 -0.45 0.116235102894)
                 (0.56 -0.45 0.126235102894)
                 (0.56 -0.45 0.146235102894)
                 (0.56 -0.45 0.166235102894)
                 (0.56 -0.45 0.196235102894)
                 (0.56 -0.45 0.246235102894)
                 (0.56 -0.45 0.296235102894)
                 (0.56 -0.45 0.346235102894)
                 (0.56 -0.45 0.396235102894)
                 (0.56 -0.45 0.446235102894)
                 (0.56 -0.45 0.496235102894)
                 (0.56 -0.45 0.546235102894)
                 (0.6 -0.45 0.0537245895174)
                 (0.6 -0.45 0.0547245895174)
                 (0.6 -0.45 0.0567245895174)
                 (0.6 -0.45 0.0587245895174)
                 (0.6 -0.45 0.0607245895174)
                 (0.6 -0.45 0.0637245895174)
                 (0.6 -0.45 0.0687245895174)
                 (0.6 -0.45 0.0737245895174)
                 (0.6 -0.45 0.0787245895174)
                 (0.6 -0.45 0.0837245895174)
                 (0.6 -0.45 0.0887245895174)
                 (0.6 -0.45 0.0987245895174)
                 (0.6 -0.45 0.108724589517)
                 (0.6 -0.45 0.118724589517)
                 (0.6 -0.45 0.128724589517)
                 (0.6 -0.45 0.148724589517)
                 (0.6 -0.45 0.168724589517)
                 (0.6 -0.45 0.198724589517)
                 (0.6 -0.45 0.248724589517)
                 (0.6 -0.45 0.298724589517)
                 (0.6 -0.45 0.348724589517)
                 (0.6 -0.45 0.398724589517)
                 (0.6 -0.45 0.448724589517)
                 (0.6 -0.45 0.498724589517)
                 (0.6 -0.45 0.548724589517)
                 (0.64 -0.45 0.0600886344148)
                 (0.64 -0.45 0.0610886344148)
                 (0.64 -0.45 0.0630886344148)
                 (0.64 -0.45 0.0650886344148)
                 (0.64 -0.45 0.0670886344148)
                 (0.64 -0.45 0.0700886344148)
                 (0.64 -0.45 0.0750886344148)
                 (0.64 -0.45 0.0800886344148)
                 (0.64 -0.45 0.0850886344148)
                 (0.64 -0.45 0.0900886344148)
                 (0.64 -0.45 0.0950886344148)
                 (0.64 -0.45 0.105088634415)
                 (0.64 -0.45 0.115088634415)
                 (0.64 -0.45 0.125088634415)
                 (0.64 -0.45 0.135088634415)
                 (0.64 -0.45 0.155088634415)
                 (0.64 -0.45 0.175088634415)
                 (0.64 -0.45 0.205088634415)
                 (0.64 -0.45 0.255088634415)
                 (0.64 -0.45 0.305088634415)
                 (0.64 -0.45 0.355088634415)
                 (0.64 -0.45 0.405088634415)
                 (0.64 -0.45 0.455088634415)
                 (0.64 -0.45 0.505088634415)
                 (0.68 -0.45 0.0609558623388)
                 (0.68 -0.45 0.0619558623388)
                 (0.68 -0.45 0.0639558623388)
                 (0.68 -0.45 0.0659558623388)
                 (0.68 -0.45 0.0679558623388)
                 (0.68 -0.45 0.0709558623388)
                 (0.68 -0.45 0.0759558623388)
                 (0.68 -0.45 0.0809558623388)
                 (0.68 -0.45 0.0859558623388)
                 (0.68 -0.45 0.0909558623388)
                 (0.68 -0.45 0.0959558623388)
                 (0.68 -0.45 0.105955862339)
                 (0.68 -0.45 0.115955862339)
                 (0.68 -0.45 0.125955862339)
                 (0.68 -0.45 0.135955862339)
                 (0.68 -0.45 0.155955862339)
                 (0.68 -0.45 0.175955862339)
                 (0.68 -0.45 0.205955862339)
                 (0.68 -0.45 0.255955862339)
                 (0.68 -0.45 0.305955862339)
                 (0.68 -0.45 0.355955862339)
                 (0.68 -0.45 0.405955862339)
                 (0.68 -0.45 0.455955862339)
                 (0.68 -0.45 0.505955862339)
                 (0.72 -0.45 0.0448731727761)
                 (0.72 -0.45 0.0458731727761)
                 (0.72 -0.45 0.0478731727761)
                 (0.72 -0.45 0.0498731727761)
                 (0.72 -0.45 0.0518731727761)
                 (0.72 -0.45 0.0548731727761)
                 (0.72 -0.45 0.0598731727761)
                 (0.72 -0.45 0.0648731727761)
                 (0.72 -0.45 0.0698731727761)
                 (0.72 -0.45 0.0748731727761)
                 (0.72 -0.45 0.0798731727761)
                 (0.72 -0.45 0.0898731727761)
                 (0.72 -0.45 0.0998731727761)
                 (0.72 -0.45 0.109873172776)
                 (0.72 -0.45 0.119873172776)
                 (0.72 -0.45 0.139873172776)
                 (0.72 -0.45 0.159873172776)
                 (0.72 -0.45 0.189873172776)
                 (0.72 -0.45 0.239873172776)
                 (0.72 -0.45 0.289873172776)
                 (0.72 -0.45 0.339873172776)
                 (0.72 -0.45 0.389873172776)
                 (0.72 -0.45 0.439873172776)
                 (0.72 -0.45 0.489873172776)
                 (0.76 -0.45 0.0272762369835)
                 (0.76 -0.45 0.0282762369835)
                 (0.76 -0.45 0.0302762369835)
                 (0.76 -0.45 0.0322762369835)
                 (0.76 -0.45 0.0342762369835)
                 (0.76 -0.45 0.0372762369835)
                 (0.76 -0.45 0.0422762369835)
                 (0.76 -0.45 0.0472762369835)
                 (0.76 -0.45 0.0522762369835)
                 (0.76 -0.45 0.0572762369835)
                 (0.76 -0.45 0.0622762369835)
                 (0.76 -0.45 0.0722762369835)
                 (0.76 -0.45 0.0822762369835)
                 (0.76 -0.45 0.0922762369835)
                 (0.76 -0.45 0.102276236983)
                 (0.76 -0.45 0.122276236983)
                 (0.76 -0.45 0.142276236983)
                 (0.76 -0.45 0.172276236983)
                 (0.76 -0.45 0.222276236983)
                 (0.76 -0.45 0.272276236983)
                 (0.76 -0.45 0.322276236983)
                 (0.76 -0.45 0.372276236983)
                 (0.76 -0.45 0.422276236983)
                 (0.76 -0.45 0.472276236983)
                 (0.8 -0.45 0.00516579589627)
                 (0.8 -0.45 0.00616579589627)
                 (0.8 -0.45 0.00816579589627)
                 (0.8 -0.45 0.0101657958963)
                 (0.8 -0.45 0.0121657958963)
                 (0.8 -0.45 0.0151657958963)
                 (0.8 -0.45 0.0201657958963)
                 (0.8 -0.45 0.0251657958963)
                 (0.8 -0.45 0.0301657958963)
                 (0.8 -0.45 0.0351657958963)
                 (0.8 -0.45 0.0401657958963)
                 (0.8 -0.45 0.0501657958963)
                 (0.8 -0.45 0.0601657958963)
                 (0.8 -0.45 0.0701657958963)
                 (0.8 -0.45 0.0801657958963)
                 (0.8 -0.45 0.100165795896)
                 (0.8 -0.45 0.120165795896)
                 (0.8 -0.45 0.150165795896)
                 (0.8 -0.45 0.200165795896)
                 (0.8 -0.45 0.250165795896)
                 (0.8 -0.45 0.300165795896)
                 (0.8 -0.45 0.350165795896)
                 (0.8 -0.45 0.400165795896)
                 (0.8 -0.45 0.450165795896)
                 (0.8 -0.45 0.500165795896)
                 (0.84 -0.45 0.00509996896112)
                 (0.84 -0.45 0.00609996896112)
                 (0.84 -0.45 0.00809996896112)
                 (0.84 -0.45 0.0100999689611)
                 (0.84 -0.45 0.0120999689611)
                 (0.84 -0.45 0.0150999689611)
                 (0.84 -0.45 0.0200999689611)
                 (0.84 -0.45 0.0250999689611)
                 (0.84 -0.45 0.0300999689611)
                 (0.84 -0.45 0.0350999689611)
                 (0.84 -0.45 0.0400999689611)
                 (0.84 -0.45 0.0500999689611)
                 (0.84 -0.45 0.0600999689611)
                 (0.84 -0.45 0.0700999689611)
                 (0.84 -0.45 0.0800999689611)
                 (0.84 -0.45 0.100099968961)
                 (0.84 -0.45 0.120099968961)
                 (0.84 -0.45 0.150099968961)
                 (0.84 -0.45 0.200099968961)
                 (0.84 -0.45 0.250099968961)
                 (0.84 -0.45 0.300099968961)
                 (0.84 -0.45 0.350099968961)
                 (0.84 -0.45 0.400099968961)
                 (0.84 -0.45 0.450099968961)
                 (0.84 -0.45 0.500099968961)
                 (0.88 -0.45 0.00557461959672)
                 (0.88 -0.45 0.00657461959672)
                 (0.88 -0.45 0.00857461959672)
                 (0.88 -0.45 0.0105746195967)
                 (0.88 -0.45 0.0125746195967)
                 (0.88 -0.45 0.0155746195967)
                 (0.88 -0.45 0.0205746195967)
                 (0.88 -0.45 0.0255746195967)
                 (0.88 -0.45 0.0305746195967)
                 (0.88 -0.45 0.0355746195967)
                 (0.88 -0.45 0.0405746195967)
                 (0.88 -0.45 0.0505746195967)
                 (0.88 -0.45 0.0605746195967)
                 (0.88 -0.45 0.0705746195967)
                 (0.88 -0.45 0.0805746195967)
                 (0.88 -0.45 0.100574619597)
                 (0.88 -0.45 0.120574619597)
                 (0.88 -0.45 0.150574619597)
                 (0.88 -0.45 0.200574619597)
                 (0.88 -0.45 0.250574619597)
                 (0.88 -0.45 0.300574619597)
                 (0.88 -0.45 0.350574619597)
                 (0.88 -0.45 0.400574619597)
                 (0.88 -0.45 0.450574619597)
                 (0.88 -0.45 0.500574619597)
                 (0.92 -0.45 0.00625107285972)
                 (0.92 -0.45 0.00725107285972)
                 (0.92 -0.45 0.00925107285972)
                 (0.92 -0.45 0.0112510728597)
                 (0.92 -0.45 0.0132510728597)
                 (0.92 -0.45 0.0162510728597)
                 (0.92 -0.45 0.0212510728597)
                 (0.92 -0.45 0.0262510728597)
                 (0.92 -0.45 0.0312510728597)
                 (0.92 -0.45 0.0362510728597)
                 (0.92 -0.45 0.0412510728597)
                 (0.92 -0.45 0.0512510728597)
                 (0.92 -0.45 0.0612510728597)
                 (0.92 -0.45 0.0712510728597)
                 (0.92 -0.45 0.0812510728597)
                 (0.92 -0.45 0.10125107286)
                 (0.92 -0.45 0.12125107286)
                 (0.92 -0.45 0.15125107286)
                 (0.92 -0.45 0.20125107286)
                 (0.92 -0.45 0.25125107286)
                 (0.92 -0.45 0.30125107286)
                 (0.92 -0.45 0.35125107286)
                 (0.92 -0.45 0.40125107286)
                 (0.92 -0.45 0.45125107286)
                 (0.92 -0.45 0.50125107286)
                 (0.96 -0.45 0.00752346982305)
                 (0.96 -0.45 0.00852346982305)
                 (0.96 -0.45 0.010523469823)
                 (0.96 -0.45 0.012523469823)
                 (0.96 -0.45 0.014523469823)
                 (0.96 -0.45 0.017523469823)
                 (0.96 -0.45 0.022523469823)
                 (0.96 -0.45 0.027523469823)
                 (0.96 -0.45 0.032523469823)
                 (0.96 -0.45 0.037523469823)
                 (0.96 -0.45 0.042523469823)
                 (0.96 -0.45 0.052523469823)
                 (0.96 -0.45 0.062523469823)
                 (0.96 -0.45 0.072523469823)
                 (0.96 -0.45 0.082523469823)
                 (0.96 -0.45 0.102523469823)
                 (0.96 -0.45 0.122523469823)
                 (0.96 -0.45 0.152523469823)
                 (0.96 -0.45 0.202523469823)
                 (0.96 -0.45 0.252523469823)
                 (0.96 -0.45 0.302523469823)
                 (0.96 -0.45 0.352523469823)
                 (0.96 -0.45 0.402523469823)
                 (0.96 -0.45 0.452523469823)
                 (0.96 -0.45 0.502523469823)
                 (1.0 -0.45 0.00885748479349)
                 (1.0 -0.45 0.00985748479349)
                 (1.0 -0.45 0.0118574847935)
                 (1.0 -0.45 0.0138574847935)
                 (1.0 -0.45 0.0158574847935)
                 (1.0 -0.45 0.0188574847935)
                 (1.0 -0.45 0.0238574847935)
                 (1.0 -0.45 0.0288574847935)
                 (1.0 -0.45 0.0338574847935)
                 (1.0 -0.45 0.0388574847935)
                 (1.0 -0.45 0.0438574847935)
                 (1.0 -0.45 0.0538574847935)
                 (1.0 -0.45 0.0638574847935)
                 (1.0 -0.45 0.0738574847935)
                 (1.0 -0.45 0.0838574847935)
                 (1.0 -0.45 0.103857484793)
                 (1.0 -0.45 0.123857484793)
                 (1.0 -0.45 0.153857484793)
                 (1.0 -0.45 0.203857484793)